---- qbsp / ericw-tools v0.18.1-32-g6660c5f ----
Input file: end3.map
Output file: end3.bsp

---- LoadMapFile ----
*** WARNING 06: No info_player_deathmatch entities in level
        78711 faces
        13093 brushes
         2191 entities
          282 unique texnames
        11696 texinfo

Opened WAD: ../../Other/Compiling/quake.wad
Processing hull 0...
---- Brush_LoadEntity ----
        11368 brushes
         7400 planes
---- CSGFaces ----
        68351 brushfaces
        50123 csgfaces
        42707 mergedfaces
---- SolidBSP ----
        52996 split nodes
        22570 solid leafs
        29148 empty leafs
         1279 water leafs
            0 detail leafs
            0 detail illusionary leafs
            0 detail fence leafs
            0 illusionary visblocker leafs
       102280 leaffaces
        93509 nodefaces
---- Portalize ----
        30427 vis leafs
        30427 vis clusters
       101207 vis portals
---- FillOutside ----
         7443 outleafs
---- MergeAll ----
        37253 mergefaces
---- SolidBSP ----
        24819 split nodes
        11660 solid leafs
        12906 empty leafs
          254 water leafs
            0 detail leafs
            0 detail illusionary leafs
            0 detail fence leafs
            0 illusionary visblocker leafs
        63317 leaffaces
        52283 nodefaces
---- Portalize ----
*** WARNING 12: New portal was clipped away in CutNodePortals_r near (-76.313 -972.000 -2560.000)
        13160 vis leafs
        13160 vis clusters
        47212 vis portals
---- Tjunc ----
        44916 world edges
       184020 edge points
        37371 edges added by tjunctions
            0 faces added by tjunctions
---- MakeFaceEdges ----
---- GrowRegions ----
Processing hull 1...
Processing hull 2...
*** WARNING 16: Texture WALL42_1 not found
---- WriteBSPFile ----
Wrote end3.bsp
        15770 planes           315400
        82182 vertexes         986184
        30302 nodes           1333288
         7316 texinfo          292640
        62966 faces           1763048
        73246 clipnodes        878952
        17364 leafs            764016
        75869 marksurfaces     303476
       296826 surfedges       1187304
       148429 edges           1187432
          285 textures        4763324
              lightdata             0
              visdata               0
              entdata          312609

15.461 seconds elapsed
Peak memory usage: 482984328 (460.6M)
