---- qbsp / ericw-tools v0.18.1-32-g6660c5f ----
Input file: test_inquisitor.map
Output file: test_inquisitor.bsp

---- LoadMapFile ----
*** WARNING 06: No info_player_deathmatch entities in level
        17377 faces
         2752 brushes
           35 entities
          252 unique texnames
         4481 texinfo

Opened WAD: ../../Other/Compiling/quake.wad
Processing hull 0...
---- Brush_LoadEntity ----
         2748 brushes
         2723 planes
---- CSGFaces ----
        17353 brushfaces
        15344 csgfaces
        12610 mergedfaces
---- SolidBSP ----
        15896 split nodes
         7186 solid leafs
         8410 empty leafs
          301 water leafs
            0 detail leafs
            0 detail illusionary leafs
            0 detail fence leafs
            0 illusionary visblocker leafs
        30726 leaffaces
        28015 nodefaces
---- Portalize ----
         8711 vis leafs
         8711 vis clusters
        29639 vis portals
---- FillOutside ----
          662 outleafs
---- MergeAll ----
        12369 mergefaces
---- SolidBSP ----
         8446 split nodes
         3869 solid leafs
         4450 empty leafs
          128 water leafs
            0 detail leafs
            0 detail illusionary leafs
            0 detail fence leafs
            0 illusionary visblocker leafs
        21125 leaffaces
        17937 nodefaces
---- Portalize ----
*** WARNING 12: New portal was clipped away in CutNodePortals_r near (-1544.000 2580.000 -608.000)
*** WARNING 12: New portal was clipped away in CutNodePortals_r near (-1516.000 1976.000 -632.000)
         4578 vis leafs
         4578 vis clusters
        16892 vis portals
---- Tjunc ----
        16339 world edges
        61053 edge points
        11715 edges added by tjunctions
            0 faces added by tjunctions
---- MakeFaceEdges ----
---- GrowRegions ----
Processing hull 1...
Processing hull 2...
*** WARNING 16: Texture nharregate not found
---- WriteBSPFile ----
Wrote test_inquisitor.bsp
         5410 planes           108200
        22038 vertexes         264456
         8446 nodes            371624
         3146 texinfo          125840
        17937 faces            502236
        18119 clipnodes        217428
         4579 leafs            201476
        21125 marksurfaces      84500
        83014 surfedges        332056
        41524 edges            332192
          268 textures        5155956
              lightdata             0
              visdata               0
              entdata            3972

2.318 seconds elapsed
Peak memory usage: 131567236 (125.5M)
