---- qbsp / ericw-tools v0.18.1-32-g6660c5f ----
Input file: test_ai.map
Output file: test_ai.bsp

*** WARNING 06: No info_player_deathmatch entities in level

Opened WAD: ../../Other/Compiling/quake.wad
Processing hull 0...
Processing hull 1...
Processing hull 2...
*** WARNING 16: Texture grass_floor1 not found
Wrote test_ai.bsp

0.058 seconds elapsed
Peak memory usage: 7646572 (7.3M)
