---- qbsp / ericw-tools v0.18.1-32-g6660c5f ----
Input file: test_ai.map
Output file: test_ai.bsp

---- LoadMapFile ----
*** WARNING 06: No info_player_deathmatch entities in level
          738 faces
          117 brushes
          128 entities
           10 unique texnames
          200 texinfo

Opened WAD: ../../Other/Compiling/quake.wad
Processing hull 0...
---- Brush_LoadEntity ----
           97 brushes
            4 detail wall
          229 planes
---- CSGFaces ----
          642 brushfaces
          675 csgfaces
          656 mergedfaces
---- SolidBSP ----
          829 split nodes
          280 solid leafs
          481 empty leafs
           56 water leafs
           13 detail leafs
            0 detail illusionary leafs
            0 detail fence leafs
            0 illusionary visblocker leafs
         1991 leaffaces
         1786 nodefaces
---- Portalize ----
          550 vis leafs
          550 vis clusters
         1734 vis portals
---- FillOutside ----
           86 outleafs
---- MergeAll ----
          647 mergefaces
---- SolidBSP ----
          628 split nodes
          250 solid leafs
          318 empty leafs
           56 water leafs
            5 detail leafs
            0 detail illusionary leafs
            0 detail fence leafs
            0 illusionary visblocker leafs
         1692 leaffaces
         1444 nodefaces
---- Portalize ----
          374 vis leafs
          321 vis clusters
         1041 vis portals
---- Tjunc ----
         1139 world edges
         4301 edge points
          738 edges added by tjunctions
            0 faces added by tjunctions
---- MakeFaceEdges ----
---- GrowRegions ----
Processing hull 1...
Processing hull 2...
---- WriteBSPFile ----
Wrote test_ai.bsp
          592 planes            11840
         1793 vertexes          21516
          724 nodes             31856
          168 texinfo            6720
         1497 faces             41916
         1385 clipnodes         16620
          471 leafs             20724
         1737 marksurfaces       6948
         6673 surfedges         26692
         3355 edges             26840
           11 textures         125948
              lightdata             0
              visdata               0
              entdata           13455

0.154 seconds elapsed
Peak memory usage: 11186816 (10.7M)
