---- qbsp / ericw-tools v0.18.1-32-g6660c5f ----
Input file: test_rope.map
Output file: test_rope.bsp

---- LoadMapFile ----
*** WARNING 06: No info_player_deathmatch entities in level
          138 faces
           23 brushes
           16 entities
            8 unique texnames
           57 texinfo

Opened WAD: ../../Other/Compiling/quake.wad
Processing hull 0...
---- Brush_LoadEntity ----
           23 brushes
           49 planes
---- CSGFaces ----
          138 brushfaces
          163 csgfaces
          110 mergedfaces
---- SolidBSP ----
          156 split nodes
           57 solid leafs
          100 empty leafs
            0 water leafs
            0 detail leafs
            0 detail illusionary leafs
            0 detail fence leafs
            0 illusionary visblocker leafs
         1536 leaffaces
         1485 nodefaces
---- Portalize ----
          100 vis leafs
          100 vis clusters
          243 vis portals
---- FillOutside ----
           86 outleafs
---- MergeAll ----
           29 mergefaces
---- SolidBSP ----
           35 split nodes
           24 solid leafs
           12 empty leafs
            0 water leafs
            0 detail leafs
            0 detail illusionary leafs
            0 detail fence leafs
            0 illusionary visblocker leafs
          288 leaffaces
          268 nodefaces
---- Portalize ----
           12 vis leafs
           12 vis clusters
           28 vis portals
---- Tjunc ----
          128 world edges
          726 edge points
           98 edges added by tjunctions
            0 faces added by tjunctions
---- MakeFaceEdges ----
---- GrowRegions ----
Processing hull 1...
Processing hull 2...
---- WriteBSPFile ----
Wrote test_rope.bsp
           52 planes             1040
          321 vertexes           3852
           35 nodes              1540
           21 texinfo             840
          268 faces              7504
           74 clipnodes           888
           13 leafs               572
          288 marksurfaces       1152
         1170 surfedges          4680
          586 edges              4688
            8 textures        2154936
              lightdata             0
              visdata               0
              entdata            1540

0.025 seconds elapsed
Peak memory usage: 3700688 (3.5M)
