---- qbsp / ericw-tools v0.18.1-32-g6660c5f ----
Input file: test_boxkeep.map
Output file: test_boxkeep.bsp

---- LoadMapFile ----
*** WARNING 06: No info_player_deathmatch entities in level
          172 faces
           26 brushes
           29 entities
            6 unique texnames
           68 texinfo

Opened WAD: ../../Other/Compiling/quake.wad
Processing hull 0...
---- Brush_LoadEntity ----
           22 brushes
           47 planes
---- CSGFaces ----
          132 brushfaces
          119 csgfaces
          105 mergedfaces
---- SolidBSP ----
          215 split nodes
           69 solid leafs
          136 empty leafs
           11 water leafs
            0 detail leafs
            0 detail illusionary leafs
            0 detail fence leafs
            0 illusionary visblocker leafs
          433 leaffaces
          432 nodefaces
---- Portalize ----
          147 vis leafs
          147 vis clusters
          373 vis portals
---- FillOutside ----
          101 outleafs
---- MergeAll ----
           92 mergefaces
---- SolidBSP ----
           53 split nodes
           26 solid leafs
           26 empty leafs
            2 water leafs
            0 detail leafs
            0 detail illusionary leafs
            0 detail fence leafs
            0 illusionary visblocker leafs
          219 leaffaces
          191 nodefaces
---- Portalize ----
           28 vis leafs
           28 vis clusters
           87 vis portals
---- Tjunc ----
          161 world edges
          588 edge points
          136 edges added by tjunctions
            0 faces added by tjunctions
---- MakeFaceEdges ----
---- GrowRegions ----
Processing hull 1...
Processing hull 2...
---- WriteBSPFile ----
Wrote test_boxkeep.bsp
          247 planes             4940
          398 vertexes           4776
           93 nodes              4092
           51 texinfo            2040
          327 faces              9156
          360 clipnodes          4320
           69 leafs              3036
          355 marksurfaces       1420
         1476 surfedges          5904
          739 edges              5912
            6 textures          65888
              lightdata             0
              visdata               0
              entdata            2473

0.018 seconds elapsed
Peak memory usage: 2028268 (1.9M)
