---- qbsp / ericw-tools v0.18.1-32-g6660c5f ----
Input file: test_template.map
Output file: test_template.bsp

---- LoadMapFile ----
*** WARNING 06: No info_player_deathmatch entities in level
          282 faces
           47 brushes
           69 entities
           10 unique texnames
          106 texinfo

Opened WAD: /home/qmaster/QUAKE/Other/Compiling/quake.wad
Processing hull 0...
---- Brush_LoadEntity ----
           37 brushes
           63 planes
---- CSGFaces ----
          222 brushfaces
          219 csgfaces
          232 mergedfaces
---- SolidBSP ----
          304 split nodes
           79 solid leafs
          191 empty leafs
           35 water leafs
            0 detail leafs
            0 detail illusionary leafs
            0 detail fence leafs
            0 illusionary visblocker leafs
          758 leaffaces
          750 nodefaces
---- Portalize ----
          226 vis leafs
          226 vis clusters
          575 vis portals
---- FillOutside ----
          137 outleafs
---- MergeAll ----
          178 mergefaces
---- SolidBSP ----
          134 split nodes
           76 solid leafs
           38 empty leafs
           21 water leafs
            0 detail leafs
            0 detail illusionary leafs
            0 detail fence leafs
            0 illusionary visblocker leafs
          370 leaffaces
          350 nodefaces
---- Portalize ----
           59 vis leafs
           59 vis clusters
          151 vis portals
---- Tjunc ----
          270 world edges
          997 edge points
          346 edges added by tjunctions
            0 faces added by tjunctions
---- MakeFaceEdges ----
---- GrowRegions ----
Processing hull 1...
Processing hull 2...
---- WriteBSPFile ----
Wrote test_template.bsp
          157 planes             3140
          489 vertexes           5868
          194 nodes              8536
           81 texinfo            3240
          414 faces             11592
          324 clipnodes          3888
          120 leafs              5280
          434 marksurfaces       1736
         2006 surfedges          8024
         1004 edges              8032
           10 textures          92924
              lightdata             0
              visdata               0
              entdata            5829

0.039 seconds elapsed
Peak memory usage: 3543832 (3.4M)
