---- qbsp / ericw-tools v0.18.1-32-g6660c5f ----
Input file: test_aishrinesflytraps.map
Output file: test_aishrinesflytraps.bsp

---- LoadMapFile ----
*** WARNING 06: No info_player_deathmatch entities in level
          690 faces
          109 brushes
          123 entities
            9 unique texnames
          189 texinfo

Opened WAD: ../../Other/Compiling/quake.wad
Processing hull 0...
---- Brush_LoadEntity ----
           89 brushes
            4 detail wall
          214 planes
---- CSGFaces ----
          594 brushfaces
          623 csgfaces
          606 mergedfaces
---- SolidBSP ----
          767 split nodes
          255 solid leafs
          449 empty leafs
           50 water leafs
           14 detail leafs
            0 detail illusionary leafs
            0 detail fence leafs
            0 illusionary visblocker leafs
         1812 leaffaces
         1601 nodefaces
---- Portalize ----
          513 vis leafs
          513 vis clusters
         1625 vis portals
---- FillOutside ----
           80 outleafs
---- MergeAll ----
          591 mergefaces
---- SolidBSP ----
          564 split nodes
          226 solid leafs
          284 empty leafs
           49 water leafs
            6 detail leafs
            0 detail illusionary leafs
            0 detail fence leafs
            0 illusionary visblocker leafs
         1584 leaffaces
         1337 nodefaces
---- Portalize ----
          333 vis leafs
          276 vis clusters
          876 vis portals
---- Tjunc ----
         1051 world edges
         3975 edge points
          634 edges added by tjunctions
            0 faces added by tjunctions
---- MakeFaceEdges ----
---- GrowRegions ----
Processing hull 1...
Processing hull 2...
---- WriteBSPFile ----
Wrote test_aishrinesflytraps.bsp
          557 planes            11140
         1669 vertexes          20028
          660 nodes             29040
          160 texinfo            6400
         1385 faces             38780
         1217 clipnodes         14604
          430 leafs             18920
         1621 marksurfaces       6484
         6124 surfedges         24496
         3081 edges             24648
           10 textures         120464
              lightdata             0
              visdata               0
              entdata           13233

0.123 seconds elapsed
Peak memory usage: 10434076 (10.0M)
